94
MCO.2xcuc | Energies: PBE+D2 = -2387.17408691 eV , D2 = -14.63107441 eV
 C    3.352698   -1.630148   -3.265654
 O    4.423964   -1.724939   -3.640781
Mg   -0.786712   -1.610104   -4.583997
Mg    1.031749   -1.427187   -9.173170
Mg   -0.018505    0.050967   -6.877683
Mg   -0.764161   -1.639362    2.307143
Mg    1.097856   -1.462604   -2.328355
Mg    0.000000    0.000000    0.000000
 O    1.849504   -2.626019   -7.754281
 O    1.428470    0.340233   -8.263921
 O    0.451248   -0.188194   -3.846524
 O    0.636923    1.340929   -5.460443
 O   -1.746948   -0.496697   -5.972068
 O   -0.819374   -1.054975   -8.435130
 O   -2.221366   -1.698199   -3.166163
 O    0.509028   -2.876491   -3.694689
 O    0.591102   -1.740186   -6.139648
 O    1.827166   -2.683035   -0.861446
 O    1.431325    0.315404   -1.381185
 O    0.490827   -0.228170    3.046541
 O    0.652890    1.296849    1.426956
 O   -1.728097   -0.524723    0.920720
 O   -0.792735   -1.110235   -1.555619
 O    0.566629   -2.874641    3.221606
 O    0.590476   -1.783641    0.758869
 H    2.678796    2.187356   -6.992208
 H   -3.969648   -0.369007   -4.691335
 H    1.917650    3.292554   -4.855255
 H   -4.542261   -1.616290   -2.550295
 H    3.005850   -4.654426   -7.129027
 H    2.690338    2.157064   -0.107888
 H   -3.952206   -0.393661    2.200793
 H    1.580960   -4.816359   -2.400060
 H    2.973504   -4.713858   -0.242271
 C    2.976312    3.660170   -8.527082
 C    2.507141    2.431500   -8.039767
 C    2.767356    3.981717   -3.015677
 C   -5.583405   -1.229292   -7.597838
 C   -5.391159   -0.865126   -6.223370
 C   -4.094641   -0.639794   -5.738944
 C    3.195011   -5.733793   -5.289064
 C    2.772968   -5.760103   -3.917322
 C    1.892928   -4.775852   -3.442888
 C    1.829032    1.496572   -8.831556
 C    0.865965    0.958583   -4.269024
 C    1.619937    1.817938   -3.322071
 C    2.092242    3.046048   -3.808740
 C   -2.947394   -0.742744   -6.534940
 C   -2.016386   -1.299099   -8.857596
 C   -3.139350   -1.107294   -7.908890
 C   -4.435965   -1.331676   -8.393749
 C    1.373056   -3.748536   -4.245385
 C    1.406422   -2.648065   -6.563146
 C    1.814013   -3.711908   -5.612100
 C    2.694297   -4.695172   -6.086058
 C    2.988072    3.631212   -1.641625
 C    2.519877    2.401761   -1.155611
 C   -5.565670   -1.244397   -0.707549
 C   -5.374826   -0.884385    0.668143
 C   -4.077161   -0.662749    1.152736
 C    3.190023   -5.775307    1.603769
 C    2.775513   -5.799319    2.976885
 C    1.906572   -4.808628    3.457902
 C    1.837480    1.467825   -1.946835
 C    0.886849    0.925556    2.619224
 C   -2.929174   -0.767658    0.357321
 C   -1.996128   -1.326485   -1.971130
 C   -3.119069   -1.128776   -1.017461
 C   -4.417096   -1.346816   -1.502464
 C    1.399127   -3.775406    2.660260
 C    1.397503   -2.697317    0.332828
 C    1.810391   -3.755455    1.286274
 C    2.677717   -4.746071    0.805366
 C    2.756474    4.009459   -9.901406
 C    1.612414    1.844653  -10.206809
 O   -2.220864   -1.689890  -10.049546
 H   -4.560406   -1.603213   -9.441170
 H    1.608243   -4.842539    4.504784
 C    2.081397    3.073111  -10.694151
 H    1.909405    3.316699  -11.741871
 H    3.504832    4.346084   -7.866234
 H    3.100678    4.960644  -10.305513
 H    1.085553    1.155816  -10.867642
 H    3.516618    4.317932   -0.981636
 H    3.108629    4.931748   -3.424950
 H    1.428620    1.583518    3.297532
 H    3.135717   -6.541366   -3.250560
 H    3.872315   -6.486926   -5.689790
 H    3.134074   -6.583384    3.642622
 H    3.872419   -6.529616    1.214044
 H   -6.231167   -0.783313    1.333722
 H   -6.558668   -1.429635   -1.115193
 H   -6.252569   -0.666098   -5.587059
 H   -6.576620   -1.417508   -8.003583
